@<TRIPOS>MOLECULE
FBDD001, 0, -57.71
 35 36 0 0 0
SMALL
USER_CHARGES

@<TRIPOS>ATOM
      1 C1          1.0973  -32.0487  -39.9267 C.3     1  MOL1       -0.0465
      2 N2          1.0081  -31.6501  -41.3439 N.3     1  MOL1        0.2459
      3 C3          0.1194  -32.5186  -42.1599 C.3     1  MOL1        0.0266
      4 C5         -0.3739  -31.7631  -43.3728 C.ar    1  MOL1        0.0034
      5 C6         -1.7529  -31.6199  -43.5805 C.ar    1  MOL1       -0.0531
      6 C7         -2.2365  -30.9095  -44.6846 C.ar    1  MOL1       -0.0618
      7 C8         -1.3428  -30.3341  -45.5921 C.ar    1  MOL1       -0.0622
      8 C9          0.0338  -30.4597  -45.3907 C.ar    1  MOL1       -0.0618
      9 C10         0.5139  -31.1715  -44.2873 C.ar    1  MOL1       -0.0531
     10 C11         0.7250  -33.8702  -42.5297 C.ar    1  MOL1        0.0076
     11 C12         2.0878  -33.9502  -42.8553 C.ar    1  MOL1       -0.0528
     12 C13         2.6814  -35.1673  -43.1943 C.ar    1  MOL1       -0.0604
     13 C14         1.9185  -36.3293  -43.2169 C.ar    1  MOL1       -0.0441
     14 C15         0.5650  -36.2938  -42.8933 C.ar    1  MOL1        0.0554
     15 C16        -0.1526  -37.5460  -42.9115 C.1     1  MOL1        0.0994
     16 N17        -0.7504  -38.5628  -42.9218 N.1     1  MOL1       -0.1924
     17 C18        -0.0361  -35.0644  -42.5524 C.ar    1  MOL1       -0.0242
     18 C19        -1.4844  -35.0586  -42.2118 C.3     1  MOL1       -0.0379
     19 H22         0.6189  -30.7096  -41.3524 H       1  MOL1        0.1988
     20 H23         1.9397  -31.6658  -41.7548 H       1  MOL1        0.1988
     21 H3         -0.7842  -32.7388  -41.5519 H       1  MOL1        0.0961
     22 H6         -2.4507  -32.0572  -42.8831 H       1  MOL1        0.0628
     23 H7         -3.2998  -30.8028  -44.8397 H       1  MOL1        0.0623
     24 H8         -1.7156  -29.7905  -46.4486 H       1  MOL1        0.0623
     25 H9          0.7218  -30.0019  -46.0870 H       1  MOL1        0.0623
     26 H10         1.5796  -31.2580  -44.1383 H       1  MOL1        0.0628
     27 H12         2.6890  -33.0539  -42.8500 H       1  MOL1        0.0628
     28 H13         3.7309  -35.2145  -43.4441 H       1  MOL1        0.0623
     29 H14         2.3751  -37.2722  -43.4807 H       1  MOL1        0.0637
     30 H11         1.7124  -31.3020  -39.3799 H       1  MOL1        0.0776
     31 H15         1.5712  -33.0499  -39.8323 H       1  MOL1        0.0776
     32 H16         0.0819  -32.0779  -39.4765 H       1  MOL1        0.0776
     33 H191       -1.8639  -36.1019  -42.2832 H       1  MOL1        0.0280
     34 H192       -1.6111  -34.6804  -41.1757 H       1  MOL1        0.0280
     35 H193       -2.0231  -34.4099  -42.9350 H       1  MOL1        0.0280
@<TRIPOS>BOND
     1     1     2    1
     2     2     3    1
     3     3     4    1
     4     3    10    1
     5     4     9   ar
     6     4     5   ar
     7     5     6   ar
     8     6     7   ar
     9     7     8   ar
    10     8     9   ar
    11    10    17   ar
    12    10    11   ar
    13    11    12   ar
    14    12    13   ar
    15    13    14   ar
    16    14    15    1
    17    14    17   ar
    18    15    16    3
    19    17    18    1
    20    19     2    1
    21    20     2    1
    22    21     3    1
    23    22     5    1
    24    23     6    1
    25    24     7    1
    26    25     8    1
    27    26     9    1
    28    27    11    1
    29    28    12    1
    30    29    13    1
    31    30     1    1
    32    31     1    1
    33    32     1    1
    34    33    18    1
    35    34    18    1
    36    35    18    1

@<TRIPOS>MOLECULE
FBDD002, 0, -52.451
 35 36 0 0 0
SMALL
USER_CHARGES

@<TRIPOS>ATOM
      1 C1          0.9319  -32.0467  -39.8009 C.3     1  MOL1       -0.0465
      2 N2          1.2109  -31.7052  -41.2074 N.3     1  MOL1        0.2459
      3 C3          0.2278  -32.3364  -42.1315 C.3     1  MOL1        0.0266
      4 C5          0.6252  -33.7577  -42.4734 C.ar    1  MOL1        0.0034
      5 C6          1.9724  -34.0949  -42.7017 C.ar    1  MOL1       -0.0531
      6 C7          2.3446  -35.3929  -43.0509 C.ar    1  MOL1       -0.0618
      7 C8          1.3637  -36.3776  -43.1786 C.ar    1  MOL1       -0.0622
      8 C9          0.0218  -36.0698  -42.9272 C.ar    1  MOL1       -0.0618
      9 C10        -0.3469  -34.7636  -42.5700 C.ar    1  MOL1       -0.0531
     10 C11        -0.0152  -31.5102  -43.3915 C.ar    1  MOL1        0.0076
     11 C12         1.0786  -30.9206  -44.0353 C.ar    1  MOL1       -0.0528
     12 C13         0.9268  -30.1723  -45.2031 C.ar    1  MOL1       -0.0604
     13 C14        -0.3375  -30.0047  -45.7591 C.ar    1  MOL1       -0.0441
     14 C15        -1.4565  -30.5493  -45.1344 C.ar    1  MOL1        0.0554
     15 C16        -2.7299  -30.2854  -45.7598 C.1     1  MOL1        0.0994
     16 N17        -3.7727  -30.0722  -46.2645 N.1     1  MOL1       -0.1924
     17 C18        -1.3033  -31.2940  -43.9447 C.ar    1  MOL1       -0.0242
     18 C19        -2.5278  -31.8140  -43.2789 C.3     1  MOL1       -0.0379
     19 H22         2.1391  -32.0491  -41.4442 H       1  MOL1        0.1988
     20 H23         1.1805  -30.6894  -41.2975 H       1  MOL1        0.1988
     21 H3         -0.7443  -32.3999  -41.5970 H       1  MOL1        0.0961
     22 H6          2.7307  -33.3326  -42.6031 H       1  MOL1        0.0628
     23 H7          3.3852  -35.6310  -43.2205 H       1  MOL1        0.0623
     24 H8          1.6459  -37.3797  -43.4668 H       1  MOL1        0.0623
     25 H9         -0.7297  -36.8421  -43.0096 H       1  MOL1        0.0623
     26 H10        -1.3837  -34.5354  -42.3718 H       1  MOL1        0.0628
     27 H12         2.0665  -31.0492  -43.6196 H       1  MOL1        0.0628
     28 H13         1.7873  -29.7300  -45.6827 H       1  MOL1        0.0623
     29 H14        -0.4561  -29.4444  -46.6752 H       1  MOL1        0.0637
     30 H11         1.7052  -31.5773  -39.1548 H       1  MOL1        0.0776
     31 H15        -0.0655  -31.6486  -39.5157 H       1  MOL1        0.0776
     32 H16         0.9498  -33.1475  -39.6453 H       1  MOL1        0.0776
     33 H191       -3.4078  -31.5050  -43.8856 H       1  MOL1        0.0280
     34 H192       -2.5986  -31.3583  -42.2666 H       1  MOL1        0.0280
     35 H193       -2.4747  -32.9214  -43.2088 H       1  MOL1        0.0280
@<TRIPOS>BOND
     1     1     2    1
     2     2     3    1
     3     3     4    1
     4     3    10    1
     5     4     9   ar
     6     4     5   ar
     7     5     6   ar
     8     6     7   ar
     9     7     8   ar
    10     8     9   ar
    11    10    17   ar
    12    10    11   ar
    13    11    12   ar
    14    12    13   ar
    15    13    14   ar
    16    14    15    1
    17    14    17   ar
    18    15    16    3
    19    17    18    1
    20    19     2    1
    21    20     2    1
    22    21     3    1
    23    22     5    1
    24    23     6    1
    25    24     7    1
    26    25     8    1
    27    26     9    1
    28    27    11    1
    29    28    12    1
    30    29    13    1
    31    30     1    1
    32    31     1    1
    33    32     1    1
    34    33    18    1
    35    34    18    1
    36    35    18    1

@<TRIPOS>MOLECULE
FBDD003, 0, -68.834
 36 37 0 0 0
SMALL
USER_CHARGES

@<TRIPOS>ATOM
      1 C1          0.8411  -31.6167  -39.8435 C.3     1  MOL1       -0.0465
      2 N2          1.2220  -31.8193  -41.2483 N.3     1  MOL1        0.2458
      3 C3          0.1821  -32.5436  -42.0216 C.3     1  MOL1        0.0264
      4 C5         -0.2488  -31.7666  -43.2374 C.ar    1  MOL1        0.0034
      5 C6         -1.6064  -31.6728  -43.5749 C.ar    1  MOL1       -0.0531
      6 C7         -2.0009  -30.9478  -44.7053 C.ar    1  MOL1       -0.0618
      7 C8         -1.0398  -30.3131  -45.4998 C.ar    1  MOL1       -0.0622
      8 C9          0.3136  -30.3994  -45.1641 C.ar    1  MOL1       -0.0618
      9 C10         0.7029  -31.1243  -44.0396 C.ar    1  MOL1       -0.0531
     10 C11         0.6128  -33.9267  -42.4311 C.ar    1  MOL1        0.0059
     11 C12         1.9514  -34.1957  -42.7542 C.ar    1  MOL1       -0.0322
     12 C13         2.3512  -35.4712  -43.1519 C.ar    1  MOL1        0.0244
     13 N14         3.6840  -35.7253  -43.4601 N.pl3   1  MOL1       -0.3583
     14 C15         1.3959  -36.4884  -43.2352 C.ar    1  MOL1       -0.0291
     15 C16         0.0566  -36.2472  -42.8986 C.ar    1  MOL1        0.0579
     16 C17        -0.9519  -37.3583  -42.9380 C.3     1  MOL1        0.4160
     17 F18        -2.0733  -37.0400  -43.6015 F       1  MOL1       -0.1661
     18 F19        -0.4916  -38.4734  -43.5252 F       1  MOL1       -0.1661
     19 F20        -1.3416  -37.7293  -41.7113 F       1  MOL1       -0.1661
     20 C21        -0.3302  -34.9603  -42.5006 C.ar    1  MOL1       -0.0407
     21 H22         2.0951  -32.3418  -41.2573 H       1  MOL1        0.1988
     22 H23         1.3337  -30.8983  -41.6720 H       1  MOL1        0.1988
     23 H3         -0.7178  -32.6557  -41.3800 H       1  MOL1        0.0960
     24 H6         -2.3505  -32.1608  -42.9633 H       1  MOL1        0.0628
     25 H7         -3.0461  -30.8764  -44.9680 H       1  MOL1        0.0623
     26 H8         -1.3398  -29.7536  -46.3737 H       1  MOL1        0.0623
     27 H9          1.0585  -29.9073  -45.7722 H       1  MOL1        0.0623
     28 H10         1.7491  -31.1902  -43.7806 H       1  MOL1        0.0628
     29 H12         2.6783  -33.3987  -42.6974 H       1  MOL1        0.0648
     30 H15         1.6981  -37.4752  -43.5529 H       1  MOL1        0.0649
     31 H21        -1.3607  -34.7659  -42.2414 H       1  MOL1        0.0634
     32 H141        3.8943  -36.6249  -43.8415 H       1  MOL1        0.1427
     33 H142        4.3397  -34.9899  -43.2783 H       1  MOL1        0.1427
     34 H11         1.6875  -31.1247  -39.3109 H       1  MOL1        0.0776
     35 H13        -0.0355  -30.9384  -39.8052 H       1  MOL1        0.0776
     36 H14         0.5954  -32.5774  -39.3453 H       1  MOL1        0.0776
@<TRIPOS>BOND
     1     1     2    1
     2     2     3    1
     3     3     4    1
     4     3    10    1
     5     4     9   ar
     6     4     5   ar
     7     5     6   ar
     8     6     7   ar
     9     7     8   ar
    10     8     9   ar
    11    10    20   ar
    12    10    11   ar
    13    11    12   ar
    14    12    13    1
    15    12    14   ar
    16    14    15   ar
    17    15    16    1
    18    15    20   ar
    19    16    17    1
    20    16    18    1
    21    16    19    1
    22    21     2    1
    23    22     2    1
    24    23     3    1
    25    24     5    1
    26    25     6    1
    27    26     7    1
    28    27     8    1
    29    28     9    1
    30    29    11    1
    31    30    14    1
    32    31    20    1
    33    32    13    1
    34    33    13    1
    35    34     1    1
    36    35     1    1
    37    36     1    1

@<TRIPOS>MOLECULE
FBDD004, 0, -66.464
 36 37 0 0 0
SMALL
USER_CHARGES

@<TRIPOS>ATOM
      1 C1          0.7886  -31.6766  -39.7445 C.3     1  MOL1       -0.0465
      2 N2         -0.0514  -32.4741  -40.6540 N.3     1  MOL1        0.2458
      3 C3          0.5040  -32.4937  -42.0378 C.3     1  MOL1        0.0264
      4 C5         -0.3975  -31.8471  -43.0700 C.ar    1  MOL1        0.0034
      5 C6          0.1462  -30.9880  -44.0371 C.ar    1  MOL1       -0.0531
      6 C7         -0.6776  -30.3914  -44.9990 C.ar    1  MOL1       -0.0618
      7 C8         -2.0520  -30.6404  -44.9974 C.ar    1  MOL1       -0.0622
      8 C9         -2.6070  -31.4800  -44.0319 C.ar    1  MOL1       -0.0618
      9 C10        -1.7813  -32.0812  -43.0802 C.ar    1  MOL1       -0.0531
     10 C11         0.8791  -33.9048  -42.4296 C.ar    1  MOL1        0.0059
     11 C12         2.2214  -34.2237  -42.6882 C.ar    1  MOL1       -0.0322
     12 C13         2.5868  -35.5284  -43.0319 C.ar    1  MOL1        0.0244
     13 N14         3.9138  -35.8553  -43.3007 N.pl3   1  MOL1       -0.3583
     14 C15         1.5991  -36.5182  -43.1108 C.ar    1  MOL1       -0.0291
     15 C16         0.2528  -36.2249  -42.8684 C.ar    1  MOL1        0.0579
     16 C17        -0.7930  -37.3057  -42.9730 C.3     1  MOL1        0.4160
     17 F18        -1.3588  -37.5985  -41.7931 F       1  MOL1       -0.1661
     18 F19        -1.8050  -36.9861  -43.7945 F       1  MOL1       -0.1661
     19 F20        -0.3089  -38.4672  -43.4445 F       1  MOL1       -0.1661
     20 C21        -0.0985  -34.9128  -42.5267 C.ar    1  MOL1       -0.0407
     21 H22        -0.0831  -33.4323  -40.3095 H       1  MOL1        0.1988
     22 H23        -0.9737  -32.0429  -40.6301 H       1  MOL1        0.1988
     23 H3          1.4507  -31.9111  -42.0429 H       1  MOL1        0.0960
     24 H6          1.2069  -30.7835  -44.0472 H       1  MOL1        0.0628
     25 H7         -0.2579  -29.7362  -45.7480 H       1  MOL1        0.0623
     26 H8         -2.6871  -30.1840  -45.7431 H       1  MOL1        0.0623
     27 H9         -3.6716  -31.6624  -44.0255 H       1  MOL1        0.0623
     28 H10        -2.2200  -32.7299  -42.3376 H       1  MOL1        0.0628
     29 H12         2.9856  -33.4620  -42.6253 H       1  MOL1        0.0648
     30 H15         1.8827  -37.5285  -43.3612 H       1  MOL1        0.0649
     31 H21        -1.1335  -34.6689  -42.3358 H       1  MOL1        0.0634
     32 H141        4.1054  -36.8075  -43.5284 H       1  MOL1        0.1427
     33 H142        4.5946  -35.1184  -43.2544 H       1  MOL1        0.1427
     34 H11         0.3677  -31.7772  -38.7220 H       1  MOL1        0.0776
     35 H13         1.8413  -32.0283  -39.7521 H       1  MOL1        0.0776
     36 H14         0.7475  -30.6080  -40.0457 H       1  MOL1        0.0776
@<TRIPOS>BOND
     1     1     2    1
     2     2     3    1
     3     3     4    1
     4     3    10    1
     5     4     9   ar
     6     4     5   ar
     7     5     6   ar
     8     6     7   ar
     9     7     8   ar
    10     8     9   ar
    11    10    20   ar
    12    10    11   ar
    13    11    12   ar
    14    12    13    1
    15    12    14   ar
    16    14    15   ar
    17    15    16    1
    18    15    20   ar
    19    16    17    1
    20    16    18    1
    21    16    19    1
    22    21     2    1
    23    22     2    1
    24    23     3    1
    25    24     5    1
    26    25     6    1
    27    26     7    1
    28    27     8    1
    29    28     9    1
    30    29    11    1
    31    30    14    1
    32    31    20    1
    33    32    13    1
    34    33    13    1
    35    34     1    1
    36    35     1    1
    37    36     1    1

@<TRIPOS>MOLECULE
FBDD005, 0, -61.472
 39 41 0 0 0
SMALL
USER_CHARGES

@<TRIPOS>ATOM
      1 C1          0.8464  -32.0010  -39.8213 C.3     1  MOL1       -0.0465
      2 N2          1.2165  -31.6847  -41.2104 N.3     1  MOL1        0.2459
      3 C3          0.3538  -32.3863  -42.1951 C.3     1  MOL1        0.0273
      4 C5          0.8781  -33.7666  -42.5571 C.ar    1  MOL1        0.0077
      5 C6          2.2321  -33.9220  -42.8902 C.ar    1  MOL1       -0.0528
      6 C7          2.7427  -35.1632  -43.2681 C.ar    1  MOL1       -0.0604
      7 C8          1.9065  -36.2745  -43.3088 C.ar    1  MOL1       -0.0441
      8 C9          0.5619  -36.1625  -42.9478 C.ar    1  MOL1        0.0554
      9 C10        -0.2329  -37.3629  -42.9839 C.1     1  MOL1        0.0994
     10 N11        -0.8896  -38.3452  -43.0102 N.1     1  MOL1       -0.1924
     11 C12         0.0407  -34.9069  -42.5661 C.ar    1  MOL1       -0.0242
     12 C13        -1.3992  -34.7963  -42.1673 C.3     1  MOL1       -0.0379
     13 C14         0.0810  -31.5343  -43.4229 C.ar    1  MOL1        0.0126
     14 C15         1.1343  -30.9672  -44.1619 C.ar    1  MOL1       -0.0524
     15 C16         0.8851  -30.1825  -45.2882 C.ar    1  MOL1       -0.0599
     16 C17        -0.4315  -29.9580  -45.6870 C.ar    1  MOL1       -0.0402
     17 C18        -1.4771  -30.4956  -44.9582 C.ar    1  MOL1        0.0377
     18 C19        -1.2215  -31.2746  -43.8425 C.ar    1  MOL1        0.0061
     19 C20        -2.5476  -31.6987  -43.2631 C.3     1  MOL1       -0.0386
     20 C21        -3.5008  -31.0274  -44.2337 C.2     1  MOL1       -0.0066
     21 N22        -2.8308  -30.3692  -45.1590 N.2     1  MOL1       -0.3206
     22 H22         1.1060  -30.6800  -41.3486 H       1  MOL1        0.1988
     23 H23         2.1789  -31.9870  -41.3402 H       1  MOL1        0.1988
     24 H3         -0.6328  -32.5498  -41.7105 H       1  MOL1        0.0961
     25 H6          2.8860  -33.0631  -42.8594 H       1  MOL1        0.0628
     26 H7          3.7852  -35.2581  -43.5333 H       1  MOL1        0.0623
     27 H8          2.3039  -37.2306  -43.6180 H       1  MOL1        0.0637
     28 H15         2.1562  -31.1375  -43.8498 H       1  MOL1        0.0628
     29 H16         1.7017  -29.7574  -45.8531 H       1  MOL1        0.0624
     30 H17        -0.6393  -29.3595  -46.5616 H       1  MOL1        0.0643
     31 H20        -2.7012  -32.7860  -43.2086 H       1  MOL1        0.0643
     32 H21        -4.5776  -31.0748  -44.1699 H       1  MOL1        0.0790
     33 H221       -3.1566  -29.8222  -45.9299 H       1  MOL1        0.1522
     34 H11         1.6725  -31.7141  -39.1348 H       1  MOL1        0.0776
     35 H12         0.6239  -33.0788  -39.7042 H       1  MOL1        0.0776
     36 H13        -0.0595  -31.4119  -39.5448 H       1  MOL1        0.0776
     37 H131       -1.8669  -35.8021  -42.2328 H       1  MOL1        0.0280
     38 H132       -1.9076  -34.0902  -42.8579 H       1  MOL1        0.0280
     39 H133       -1.4503  -34.4180  -41.1236 H       1  MOL1        0.0280
@<TRIPOS>BOND
     1     1     2    1
     2     2     3    1
     3     3     4    1
     4     3    13    1
     5     4    11   ar
     6     4     5   ar
     7     5     6   ar
     8     6     7   ar
     9     7     8   ar
    10     8     9    1
    11     8    11   ar
    12     9    10    3
    13    11    12    1
    14    13    18   ar
    15    13    14   ar
    16    14    15   ar
    17    15    16   ar
    18    16    17   ar
    19    17    21    1
    20    17    18   ar
    21    18    19    1
    22    19    20    1
    23    20    21    2
    24    22     2    1
    25    23     2    1
    26    24     3    1
    27    25     5    1
    28    26     6    1
    29    27     7    1
    30    28    14    1
    31    29    15    1
    32    30    16    1
    33    31    19    1
    34    32    20    1
    35    33    21    1
    36    34     1    1
    37    35     1    1
    38    36     1    1
    39    37    12    1
    40    38    12    1
    41    39    12    1

@<TRIPOS>MOLECULE
FBDD006, 0, -63.064
 39 41 0 0 0
SMALL
USER_CHARGES

@<TRIPOS>ATOM
      1 C1          1.1052  -32.0452  -39.8645 C.3     1  MOL1       -0.0465
      2 N2          1.0283  -31.6673  -41.2892 N.3     1  MOL1        0.2459
      3 C3          0.1614  -32.5934  -42.0689 C.3     1  MOL1        0.0273
      4 C5         -0.6979  -31.8713  -43.0952 C.ar    1  MOL1        0.0077
      5 C6         -2.0727  -32.0434  -42.9298 C.ar    1  MOL1       -0.0528
      6 C7         -2.9990  -31.3990  -43.7515 C.ar    1  MOL1       -0.0604
      7 C8         -2.5587  -30.5731  -44.7781 C.ar    1  MOL1       -0.0441
      8 C9         -1.1915  -30.3931  -44.9887 C.ar    1  MOL1        0.0554
      9 C10        -0.8083  -29.5287  -46.0764 C.1     1  MOL1        0.0994
     10 N11        -0.4728  -28.8272  -46.9636 N.1     1  MOL1       -0.1924
     11 C12        -0.2515  -31.0337  -44.1488 C.ar    1  MOL1       -0.0242
     12 C13         1.1952  -30.7816  -44.4031 C.3     1  MOL1       -0.0379
     13 C14         0.8710  -33.8343  -42.5873 C.ar    1  MOL1        0.0126
     14 C15         2.2591  -33.8026  -42.7880 C.ar    1  MOL1       -0.0524
     15 C16         2.9456  -34.9428  -43.2085 C.ar    1  MOL1       -0.0599
     16 C17         2.2510  -36.1250  -43.4270 C.ar    1  MOL1       -0.0402
     17 C18         0.8822  -36.1697  -43.2383 C.ar    1  MOL1        0.0377
     18 C19         0.1926  -35.0344  -42.8399 C.ar    1  MOL1        0.0061
     19 C20        -1.2784  -35.3925  -42.7555 C.3     1  MOL1       -0.0386
     20 C21        -1.2201  -36.8648  -43.1329 C.2     1  MOL1       -0.0066
     21 N22         0.0215  -37.2312  -43.3862 N.2     1  MOL1       -0.3206
     22 H22         1.9698  -31.6806  -41.6838 H       1  MOL1        0.1988
     23 H23         0.6197  -30.7385  -41.3261 H       1  MOL1        0.1988
     24 H3         -0.5623  -32.9754  -41.3196 H       1  MOL1        0.0961
     25 H6         -2.4281  -32.6863  -42.1378 H       1  MOL1        0.0628
     26 H7         -4.0570  -31.5432  -43.5875 H       1  MOL1        0.0623
     27 H8         -3.2735  -30.0702  -45.4121 H       1  MOL1        0.0637
     28 H15         2.7990  -32.8821  -42.6157 H       1  MOL1        0.0628
     29 H16         4.0130  -34.8988  -43.3700 H       1  MOL1        0.0624
     30 H17         2.7824  -37.0083  -43.7439 H       1  MOL1        0.0643
     31 H20        -1.8996  -34.8312  -43.4683 H       1  MOL1        0.0643
     32 H21        -2.0763  -37.5204  -43.1909 H       1  MOL1        0.0790
     33 H221        0.3906  -38.1198  -43.6579 H       1  MOL1        0.1522
     34 H11         1.5146  -31.2026  -39.2649 H       1  MOL1        0.0776
     35 H12         1.7670  -32.9293  -39.7379 H       1  MOL1        0.0776
     36 H13         0.0893  -32.2935  -39.4872 H       1  MOL1        0.0776
     37 H131        1.2809  -30.0530  -45.2375 H       1  MOL1        0.0280
     38 H132        1.6741  -31.7454  -44.6808 H       1  MOL1        0.0280
     39 H133        1.6544  -30.3688  -43.4786 H       1  MOL1        0.0280
@<TRIPOS>BOND
     1     1     2    1
     2     2     3    1
     3     3     4    1
     4     3    13    1
     5     4    11   ar
     6     4     5   ar
     7     5     6   ar
     8     6     7   ar
     9     7     8   ar
    10     8     9    1
    11     8    11   ar
    12     9    10    3
    13    11    12    1
    14    13    18   ar
    15    13    14   ar
    16    14    15   ar
    17    15    16   ar
    18    16    17   ar
    19    17    21    1
    20    17    18   ar
    21    18    19    1
    22    19    20    1
    23    20    21    2
    24    22     2    1
    25    23     2    1
    26    24     3    1
    27    25     5    1
    28    26     6    1
    29    27     7    1
    30    28    14    1
    31    29    15    1
    32    30    16    1
    33    31    19    1
    34    32    20    1
    35    33    21    1
    36    34     1    1
    37    35     1    1
    38    36     1    1
    39    37    12    1
    40    38    12    1
    41    39    12    1

@<TRIPOS>MOLECULE
FBDD007, 0, -73.679
 40 42 0 0 0
SMALL
USER_CHARGES

@<TRIPOS>ATOM
      1 C1          1.0474  -32.0386  -39.7363 C.3     1  MOL1       -0.0465
      2 N2          1.2132  -31.6819  -41.1558 N.3     1  MOL1        0.2458
      3 C3          0.2336  -32.3956  -42.0201 C.3     1  MOL1        0.0264
      4 C5          0.6350  -33.7988  -42.3955 C.ar    1  MOL1        0.0059
      5 C6          1.9779  -34.1303  -42.6353 C.ar    1  MOL1       -0.0322
      6 C7          2.3389  -35.4244  -43.0160 C.ar    1  MOL1        0.0244
      7 N8          3.6724  -35.7483  -43.2547 N.pl3   1  MOL1       -0.3583
      8 C9          1.3411  -36.3947  -43.1558 C.ar    1  MOL1       -0.0291
      9 C10        -0.0044  -36.0897  -42.9134 C.ar    1  MOL1        0.0579
     10 C11        -1.0588  -37.1489  -43.0764 C.3     1  MOL1        0.4160
     11 F12        -2.0001  -37.1081  -42.1218 F       1  MOL1       -0.1661
     12 F13        -1.7124  -37.0474  -44.2447 F       1  MOL1       -0.1661
     13 F14        -0.5719  -38.3958  -43.0391 F       1  MOL1       -0.1661
     14 C15        -0.3514  -34.7860  -42.5298 C.ar    1  MOL1       -0.0407
     15 C16        -0.0542  -31.6073  -43.2647 C.ar    1  MOL1        0.0041
     16 C17        -1.3732  -31.4323  -43.7033 C.ar    1  MOL1       -0.0512
     17 C18        -1.6255  -30.6504  -44.8383 C.ar    1  MOL1       -0.0397
     18 C19        -0.5740  -30.0417  -45.5145 C.ar    1  MOL1        0.0372
     19 C20         0.7254  -30.2224  -45.0831 C.ar    1  MOL1       -0.0025
     20 C21         0.9869  -31.0130  -43.9871 C.ar    1  MOL1       -0.0439
     21 C22         1.6606  -29.4381  -45.9754 C.3     1  MOL1       -0.0392
     22 C23         0.6456  -28.8483  -46.9389 C.2     1  MOL1       -0.0066
     23 N24        -0.5831  -29.2217  -46.6143 N.2     1  MOL1       -0.3206
     24 H22         2.1522  -31.9389  -41.4512 H       1  MOL1        0.1988
     25 H23         1.0687  -30.6755  -41.2493 H       1  MOL1        0.1988
     26 H3         -0.7273  -32.4721  -41.4674 H       1  MOL1        0.0960
     27 H6          2.7403  -33.3731  -42.5268 H       1  MOL1        0.0648
     28 H9          1.6089  -37.3963  -43.4574 H       1  MOL1        0.0649
     29 H15        -1.3866  -34.5368  -42.3444 H       1  MOL1        0.0634
     30 H17        -2.1900  -31.8892  -43.1645 H       1  MOL1        0.0629
     31 H18        -2.6403  -30.5106  -45.1821 H       1  MOL1        0.0643
     32 H21         2.0066  -31.1659  -43.6684 H       1  MOL1        0.0635
     33 H221        2.3888  -30.0738  -46.5019 H       1  MOL1        0.0643
     34 H231        0.8926  -28.1994  -47.7635 H       1  MOL1        0.0790
     35 H24        -1.4613  -28.9956  -47.0397 H       1  MOL1        0.1522
     36 H81         3.8707  -36.7009  -43.4812 H       1  MOL1        0.1427
     37 H82         4.3395  -35.0054  -43.1807 H       1  MOL1        0.1427
     38 H11         1.8552  -31.5545  -39.1455 H       1  MOL1        0.0776
     39 H12         0.0638  -31.6743  -39.3707 H       1  MOL1        0.0776
     40 H13         1.1061  -33.1398  -39.6073 H       1  MOL1        0.0776
@<TRIPOS>BOND
     1     1     2    1
     2     2     3    1
     3     3     4    1
     4     3    15    1
     5     4    14   ar
     6     4     5   ar
     7     5     6   ar
     8     6     7    1
     9     6     8   ar
    10     8     9   ar
    11     9    10    1
    12     9    14   ar
    13    10    11    1
    14    10    12    1
    15    10    13    1
    16    15    20   ar
    17    15    16   ar
    18    16    17   ar
    19    17    18   ar
    20    18    23    1
    21    18    19   ar
    22    19    20   ar
    23    19    21    1
    24    21    22    1
    25    22    23    2
    26    24     2    1
    27    25     2    1
    28    26     3    1
    29    27     5    1
    30    28     8    1
    31    29    14    1
    32    30    16    1
    33    31    17    1
    34    32    20    1
    35    33    21    1
    36    34    22    1
    37    35    23    1
    38    36     7    1
    39    37     7    1
    40    38     1    1
    41    39     1    1
    42    40     1    1

@<TRIPOS>MOLECULE
FBDD008, 0, -69.939
 40 42 0 0 0
SMALL
USER_CHARGES

@<TRIPOS>ATOM
      1 C1          0.8049  -31.7415  -39.6164 C.3     1  MOL1       -0.0465
      2 N2          0.0141  -32.5464  -40.5639 N.3     1  MOL1        0.2458
      3 C3          0.6501  -32.5580  -41.9029 C.3     1  MOL1        0.0264
      4 C5          0.9796  -33.9547  -42.3357 C.ar    1  MOL1        0.0059
      5 C6          2.3037  -34.2962  -42.6184 C.ar    1  MOL1       -0.0322
      6 C7          2.6182  -35.5779  -43.0762 C.ar    1  MOL1        0.0244
      7 N8          3.9412  -35.8931  -43.3653 N.pl3   1  MOL1       -0.3583
      8 C9          1.5952  -36.5255  -43.2344 C.ar    1  MOL1       -0.0291
      9 C10         0.2691  -36.2093  -42.9011 C.ar    1  MOL1        0.0579
     10 C11        -0.8468  -37.2109  -42.9822 C.3     1  MOL1        0.4160
     11 F12        -1.8590  -36.7946  -43.7539 F       1  MOL1       -0.1661
     12 F13        -0.4743  -38.3975  -43.4825 F       1  MOL1       -0.1661
     13 F14        -1.3862  -37.4775  -41.7801 F       1  MOL1       -0.1661
     14 C15        -0.0277  -34.9203  -42.4630 C.ar    1  MOL1       -0.0407
     15 C16        -0.1655  -31.8688  -42.9661 C.ar    1  MOL1        0.0041
     16 C17        -1.5557  -32.0495  -43.0404 C.ar    1  MOL1       -0.0512
     17 C18        -2.3019  -31.4037  -44.0276 C.ar    1  MOL1       -0.0397
     18 C19        -1.6683  -30.5732  -44.9353 C.ar    1  MOL1        0.0372
     19 C20        -0.2985  -30.3931  -44.8724 C.ar    1  MOL1       -0.0025
     20 C21         0.4600  -31.0321  -43.9024 C.ar    1  MOL1       -0.0439
     21 C22         0.1105  -29.4370  -45.9741 C.3     1  MOL1       -0.0392
     22 C23        -1.2505  -29.1637  -46.5966 C.2     1  MOL1       -0.0066
     23 N24        -2.2002  -29.8336  -45.9636 N.2     1  MOL1       -0.3206
     24 H22        -0.9174  -32.1287  -40.6233 H       1  MOL1        0.1988
     25 H23         0.0011  -33.4982  -40.2091 H       1  MOL1        0.1988
     26 H3          1.6150  -32.0113  -41.8334 H       1  MOL1        0.0960
     27 H6          3.0884  -33.5647  -42.4965 H       1  MOL1        0.0648
     28 H9          1.8325  -37.5128  -43.6007 H       1  MOL1        0.0649
     29 H15        -1.0469  -34.6629  -42.2172 H       1  MOL1        0.0634
     30 H17        -2.0499  -32.6947  -42.3288 H       1  MOL1        0.0629
     31 H18        -3.3700  -31.5504  -44.0805 H       1  MOL1        0.0643
     32 H21         1.5285  -30.8792  -43.8667 H       1  MOL1        0.0635
     33 H221        0.8228  -29.8554  -46.7016 H       1  MOL1        0.0643
     34 H231       -1.4216  -28.5061  -47.4364 H       1  MOL1        0.0790
     35 H24        -3.1863  -29.8650  -46.1252 H       1  MOL1        0.1522
     36 H81         4.1025  -36.7566  -43.8515 H       1  MOL1        0.1427
     37 H82         4.6379  -35.2439  -43.0671 H       1  MOL1        0.1427
     38 H11         0.2618  -31.6896  -38.6483 H       1  MOL1        0.0776
     39 H12         1.8065  -32.1973  -39.4517 H       1  MOL1        0.0776
     40 H13         0.9216  -30.7168  -40.0212 H       1  MOL1        0.0776
@<TRIPOS>BOND
     1     1     2    1
     2     2     3    1
     3     3     4    1
     4     3    15    1
     5     4    14   ar
     6     4     5   ar
     7     5     6   ar
     8     6     7    1
     9     6     8   ar
    10     8     9   ar
    11     9    10    1
    12     9    14   ar
    13    10    11    1
    14    10    12    1
    15    10    13    1
    16    15    20   ar
    17    15    16   ar
    18    16    17   ar
    19    17    18   ar
    20    18    23    1
    21    18    19   ar
    22    19    20   ar
    23    19    21    1
    24    21    22    1
    25    22    23    2
    26    24     2    1
    27    25     2    1
    28    26     3    1
    29    27     5    1
    30    28     8    1
    31    29    14    1
    32    30    16    1
    33    31    17    1
    34    32    20    1
    35    33    21    1
    36    34    22    1
    37    35    23    1
    38    36     7    1
    39    37     7    1
    40    38     1    1
    41    39     1    1
    42    40     1    1

@<TRIPOS>MOLECULE
FBDD009, 0, -57.043
 33 34 0 0 0
SMALL
USER_CHARGES

@<TRIPOS>ATOM
      1 C1          0.8601  -32.0060  -40.2809 C.3     1  MOL1       -0.0468
      2 N2          1.1471  -31.8021  -41.7121 N.3     1  MOL1        0.2432
      3 C3          0.3035  -32.6402  -42.6141 C.3     1  MOL1        0.0122
      4 C5          0.8678  -34.0401  -42.7213 C.ar    1  MOL1        0.0039
      5 C6          2.2507  -34.1943  -42.8973 C.ar    1  MOL1       -0.0531
      6 C7          2.8100  -35.4473  -43.1101 C.ar    1  MOL1       -0.0604
      7 C8          1.9846  -36.5640  -43.1404 C.ar    1  MOL1       -0.0441
      8 C9          0.6141  -36.4601  -42.9164 C.ar    1  MOL1        0.0554
      9 C10        -0.1526  -37.6795  -42.9145 C.1     1  MOL1        0.0994
     10 N11        -0.7770  -38.6799  -42.9053 N.1     1  MOL1       -0.1924
     11 C12         0.0533  -35.1896  -42.6927 C.ar    1  MOL1       -0.0245
     12 C13        -1.4031  -35.0700  -42.4326 C.3     1  MOL1       -0.0380
     13 C14         0.1442  -32.1976  -44.0958 C.3     1  MOL1        0.0602
     14 C15        -1.2988  -31.8173  -44.2922 C.2     1  MOL1       -0.0519
     15 C16        -1.3287  -30.5203  -44.7104 C.2     1  MOL1        0.0233
     16 N17        -0.1198  -29.9396  -44.7494 N.2     1  MOL1       -0.2685
     17 C18         0.7700  -30.8390  -44.3380 C.2     1  MOL1        0.0171
     18 H22         1.0061  -30.8131  -41.9106 H       1  MOL1        0.1985
     19 H23         2.1209  -32.0430  -41.8710 H       1  MOL1        0.1985
     20 H3         -0.7093  -32.7280  -42.1630 H       1  MOL1        0.0916
     21 H6          2.8861  -33.3222  -42.8799 H       1  MOL1        0.0628
     22 H7          3.8750  -35.5512  -43.2546 H       1  MOL1        0.0623
     23 H8          2.4147  -37.5378  -43.3289 H       1  MOL1        0.0637
     24 H14         0.4877  -32.9656  -44.8056 H       1  MOL1        0.0469
     25 H15        -2.1707  -32.4417  -44.1696 H       1  MOL1        0.0601
     26 H16        -2.2626  -30.0387  -44.9647 H       1  MOL1        0.0837
     27 H18         1.8219  -30.6343  -44.2080 H       1  MOL1        0.0800
     28 H11         1.6873  -31.5702  -39.6815 H       1  MOL1        0.0776
     29 H12         0.7572  -33.0867  -40.0494 H       1  MOL1        0.0776
     30 H13        -0.0849  -31.4794  -40.0236 H       1  MOL1        0.0776
     31 H131       -1.8463  -36.0898  -42.4194 H       1  MOL1        0.0280
     32 H132       -1.5550  -34.5773  -41.4488 H       1  MOL1        0.0280
     33 H133       -1.8655  -34.4661  -43.2421 H       1  MOL1        0.0280
@<TRIPOS>BOND
     1     1     2    1
     2     2     3    1
     3     3     4    1
     4     3    13    1
     5     4    11   ar
     6     4     5   ar
     7     5     6   ar
     8     6     7   ar
     9     7     8   ar
    10     8     9    1
    11     8    11   ar
    12     9    10    3
    13    11    12    1
    14    13    17    1
    15    13    14    1
    16    14    15    2
    17    15    16    1
    18    16    17    2
    19    18     2    1
    20    19     2    1
    21    20     3    1
    22    21     5    1
    23    22     6    1
    24    23     7    1
    25    24    13    1
    26    25    14    1
    27    26    15    1
    28    27    17    1
    29    28     1    1
    30    29     1    1
    31    30     1    1
    32    31    12    1
    33    32    12    1
    34    33    12    1

@<TRIPOS>MOLECULE
FBDD010, 0, -51.942
 33 34 0 0 0
SMALL
USER_CHARGES

@<TRIPOS>ATOM
      1 C1          0.8274  -31.9895  -40.3059 C.3     1  MOL1       -0.0468
      2 N2         -0.1336  -32.1853  -41.4168 N.3     1  MOL1        0.2432
      3 C3          0.5604  -32.5224  -42.6888 C.3     1  MOL1        0.0122
      4 C5          1.0051  -33.9634  -42.7354 C.ar    1  MOL1        0.0039
      5 C6          2.3826  -34.1741  -42.8211 C.ar    1  MOL1       -0.0531
      6 C7          2.8980  -35.4556  -42.9808 C.ar    1  MOL1       -0.0604
      7 C8          2.0243  -36.5389  -43.0424 C.ar    1  MOL1       -0.0441
      8 C9          0.6457  -36.3660  -42.9069 C.ar    1  MOL1        0.0554
      9 C10        -0.1832  -37.5441  -42.9531 C.1     1  MOL1        0.0994
     10 N11        -0.8681  -38.5035  -42.9909 N.1     1  MOL1       -0.1924
     11 C12         0.1233  -35.0728  -42.7334 C.ar    1  MOL1       -0.0245
     12 C13        -1.3571  -34.9081  -42.5572 C.3     1  MOL1       -0.0380
     13 C14        -0.1171  -32.2342  -44.0618 C.3     1  MOL1        0.0602
     14 C15         0.4623  -30.9532  -44.5880 C.2     1  MOL1       -0.0519
     15 C16        -0.5728  -30.0902  -44.7891 C.2     1  MOL1        0.0233
     16 N17        -1.7603  -30.5611  -44.3793 N.2     1  MOL1       -0.2685
     17 C18        -1.5539  -31.7777  -43.8796 C.2     1  MOL1        0.0171
     18 H22        -0.6196  -31.3039  -41.5594 H       1  MOL1        0.1985
     19 H23        -0.7662  -32.9436  -41.1604 H       1  MOL1        0.1985
     20 H3          1.5028  -31.9333  -42.6825 H       1  MOL1        0.0916
     21 H6          3.0587  -33.3329  -42.7771 H       1  MOL1        0.0628
     22 H7          3.9630  -35.6133  -43.0607 H       1  MOL1        0.0623
     23 H8          2.4208  -37.5341  -43.1891 H       1  MOL1        0.0637
     24 H14        -0.0098  -33.0725  -44.7666 H       1  MOL1        0.0469
     25 H15         1.4930  -30.7360  -44.8146 H       1  MOL1        0.0601
     26 H16        -0.4058  -29.1154  -45.2291 H       1  MOL1        0.0837
     27 H18        -2.3263  -32.3876  -43.4348 H       1  MOL1        0.0800
     28 H11         0.2689  -31.8895  -39.3519 H       1  MOL1        0.0776
     29 H12         1.4068  -31.0588  -40.4815 H       1  MOL1        0.0776
     30 H13         1.5279  -32.8487  -40.2351 H       1  MOL1        0.0776
     31 H131       -1.8300  -35.9132  -42.5372 H       1  MOL1        0.0280
     32 H132       -1.5492  -34.3745  -41.5999 H       1  MOL1        0.0280
     33 H133       -1.7532  -34.3139  -43.4087 H       1  MOL1        0.0280
@<TRIPOS>BOND
     1     1     2    1
     2     2     3    1
     3     3     4    1
     4     3    13    1
     5     4    11   ar
     6     4     5   ar
     7     5     6   ar
     8     6     7   ar
     9     7     8   ar
    10     8     9    1
    11     8    11   ar
    12     9    10    3
    13    11    12    1
    14    13    17    1
    15    13    14    1
    16    14    15    2
    17    15    16    1
    18    16    17    2
    19    18     2    1
    20    19     2    1
    21    20     3    1
    22    21     5    1
    23    22     6    1
    24    23     7    1
    25    24    13    1
    26    25    14    1
    27    26    15    1
    28    27    17    1
    29    28     1    1
    30    29     1    1
    31    30     1    1
    32    31    12    1
    33    32    12    1
    34    33    12    1

@<TRIPOS>MOLECULE
FBDD011, 0, -69.934
 34 35 0 0 0
SMALL
USER_CHARGES

@<TRIPOS>ATOM
      1 C1          0.5831  -31.9554  -40.2923 C.3     1  MOL1       -0.0468
      2 N2          0.8499  -31.6492  -41.7173 N.3     1  MOL1        0.2432
      3 C3          0.0400  -32.5293  -42.6057 C.3     1  MOL1        0.0120
      4 C5          0.5919  -33.9217  -42.6697 C.ar    1  MOL1        0.0021
      5 C6          1.9641  -34.1611  -42.8441 C.ar    1  MOL1       -0.0325
      6 C7          2.4452  -35.4686  -42.9669 C.ar    1  MOL1        0.0244
      7 N8          3.8048  -35.7057  -43.1503 N.pl3   1  MOL1       -0.3583
      8 C9          1.5426  -36.5348  -42.9039 C.ar    1  MOL1       -0.0291
      9 C10         0.1739  -36.3081  -42.6984 C.ar    1  MOL1        0.0578
     10 C11        -0.7816  -37.4560  -42.5925 C.3     1  MOL1        0.4160
     11 F12        -1.0127  -38.0507  -43.7708 F       1  MOL1       -0.1661
     12 F13        -0.3368  -38.4164  -41.7717 F       1  MOL1       -0.1661
     13 F14        -1.9863  -37.1026  -42.1138 F       1  MOL1       -0.1661
     14 C15        -0.2943  -34.9966  -42.5819 C.ar    1  MOL1       -0.0411
     15 C16        -0.1770  -32.1221  -44.0851 C.3     1  MOL1        0.0602
     16 C17        -1.4887  -31.3968  -44.1889 C.2     1  MOL1       -0.0519
     17 C18        -1.2402  -30.2050  -44.8020 C.2     1  MOL1        0.0233
     18 N19         0.0672  -29.9469  -44.9693 N.2     1  MOL1       -0.2685
     19 C20         0.7392  -30.9747  -44.4584 C.2     1  MOL1        0.0171
     20 H22         0.5882  -30.6791  -41.8833 H       1  MOL1        0.1985
     21 H23         1.8370  -31.8047  -41.9155 H       1  MOL1        0.1985
     22 H3         -0.9678  -32.6350  -42.1475 H       1  MOL1        0.0916
     23 H6          2.6476  -33.3259  -42.8887 H       1  MOL1        0.0648
     24 H9          1.9103  -37.5471  -43.0067 H       1  MOL1        0.0649
     25 H15        -1.3485  -34.8150  -42.4302 H       1  MOL1        0.0634
     26 H16        -0.1140  -32.9786  -44.7706 H       1  MOL1        0.0469
     27 H17        -2.4656  -31.7523  -43.8955 H       1  MOL1        0.0601
     28 H18        -2.0522  -29.5509  -45.0860 H       1  MOL1        0.0837
     29 H20         1.8137  -31.0112  -44.3634 H       1  MOL1        0.0800
     30 H81         4.0942  -36.6652  -43.1667 H       1  MOL1        0.1427
     31 H82         4.3988  -34.9104  -43.2511 H       1  MOL1        0.1427
     32 H11         1.2586  -31.3563  -39.6462 H       1  MOL1        0.0776
     33 H12        -0.4700  -31.6931  -40.0459 H       1  MOL1        0.0776
     34 H13         0.7382  -33.0373  -40.0958 H       1  MOL1        0.0776
@<TRIPOS>BOND
     1     1     2    1
     2     2     3    1
     3     3     4    1
     4     3    15    1
     5     4    14   ar
     6     4     5   ar
     7     5     6   ar
     8     6     7    1
     9     6     8   ar
    10     8     9   ar
    11     9    10    1
    12     9    14   ar
    13    10    11    1
    14    10    12    1
    15    10    13    1
    16    15    19    1
    17    15    16    1
    18    16    17    2
    19    17    18    1
    20    18    19    2
    21    20     2    1
    22    21     2    1
    23    22     3    1
    24    23     5    1
    25    24     8    1
    26    25    14    1
    27    26    15    1
    28    27    16    1
    29    28    17    1
    30    29    19    1
    31    30     7    1
    32    31     7    1
    33    32     1    1
    34    33     1    1
    35    34     1    1

@<TRIPOS>MOLECULE
FBDD012, 0, -62.459
 34 35 0 0 0
SMALL
USER_CHARGES

@<TRIPOS>ATOM
      1 C1          0.7899  -32.0429  -40.4307 C.3     1  MOL1       -0.0468
      2 N2         -0.2160  -32.1820  -41.5086 N.3     1  MOL1        0.2432
      3 C3          0.4251  -32.4807  -42.8140 C.3     1  MOL1        0.0120
      4 C5          0.8532  -33.9023  -42.8461 C.ar    1  MOL1        0.0021
      5 C6          2.2124  -34.1981  -42.9043 C.ar    1  MOL1       -0.0325
      6 C7          2.6295  -35.5213  -42.9852 C.ar    1  MOL1        0.0244
      7 N8          3.9850  -35.8082  -43.0708 N.pl3   1  MOL1       -0.3583
      8 C9          1.6720  -36.5432  -42.9894 C.ar    1  MOL1       -0.0291
      9 C10         0.3018  -36.2578  -42.9099 C.ar    1  MOL1        0.0578
     10 C11        -0.7521  -37.3250  -42.9091 C.3     1  MOL1        0.4160
     11 F12        -1.7117  -37.0977  -43.8181 F       1  MOL1       -0.1661
     12 F13        -0.2826  -38.5475  -43.1861 F       1  MOL1       -0.1661
     13 F14        -1.3804  -37.4319  -41.7302 F       1  MOL1       -0.1661
     14 C15        -0.0983  -34.9290  -42.8361 C.ar    1  MOL1       -0.0411
     15 C16        -0.3632  -32.2587  -44.1328 C.3     1  MOL1        0.0602
     16 C17         0.1300  -30.9666  -44.7129 C.2     1  MOL1       -0.0519
     17 C18        -0.9425  -30.1370  -44.8236 C.2     1  MOL1        0.0233
     18 N19        -2.0761  -30.6414  -44.3119 N.2     1  MOL1       -0.2685
     19 C20        -1.7954  -31.8551  -43.8432 C.2     1  MOL1        0.0171
     20 H22        -0.6811  -31.2928  -41.6131 H       1  MOL1        0.1985
     21 H23        -0.8648  -32.9286  -41.2574 H       1  MOL1        0.1985
     22 H3          1.3576  -31.8788  -42.8752 H       1  MOL1        0.0916
     23 H6          2.9413  -33.4010  -42.9028 H       1  MOL1        0.0648
     24 H9          1.9958  -37.5709  -43.0563 H       1  MOL1        0.0649
     25 H15        -1.1499  -34.6875  -42.7829 H       1  MOL1        0.0634
     26 H16        -0.2726  -33.1047  -44.8298 H       1  MOL1        0.0469
     27 H17         1.1371  -30.7271  -45.0206 H       1  MOL1        0.0601
     28 H18        -0.8326  -29.1597  -45.2709 H       1  MOL1        0.0837
     29 H20        -2.5087  -32.4894  -43.3385 H       1  MOL1        0.0800
     30 H81         4.2474  -36.7713  -43.0665 H       1  MOL1        0.1427
     31 H82         4.6106  -35.0325  -43.1279 H       1  MOL1        0.1427
     32 H11         0.2768  -31.8445  -39.4655 H       1  MOL1        0.0776
     33 H12         1.3911  -32.9735  -40.3500 H       1  MOL1        0.0776
     34 H13         1.4622  -31.1896  -40.6685 H       1  MOL1        0.0776
@<TRIPOS>BOND
     1     1     2    1
     2     2     3    1
     3     3     4    1
     4     3    15    1
     5     4    14   ar
     6     4     5   ar
     7     5     6   ar
     8     6     7    1
     9     6     8   ar
    10     8     9   ar
    11     9    10    1
    12     9    14   ar
    13    10    11    1
    14    10    12    1
    15    10    13    1
    16    15    19    1
    17    15    16    1
    18    16    17    2
    19    17    18    1
    20    18    19    2
    21    20     2    1
    22    21     2    1
    23    22     3    1
    24    23     5    1
    25    24     8    1
    26    25    14    1
    27    26    15    1
    28    27    16    1
    29    28    17    1
    30    29    19    1
    31    30     7    1
    32    31     7    1
    33    32     1    1
    34    33     1    1
    35    34     1    1

@<TRIPOS>MOLECULE
FBDD013, 0, -62.501
 39 41 0 0 0
SMALL
USER_CHARGES

@<TRIPOS>ATOM
      1 C1          0.8472  -32.0613  -40.0543 C.3     1  MOL1       -0.0468
      2 N2          0.8464  -31.6466  -41.4758 N.3     1  MOL1        0.2433
      3 C3         -0.0698  -32.5032  -42.2933 C.3     1  MOL1        0.0128
      4 C5          0.3021  -33.9735  -42.4196 C.ar    1  MOL1        0.0039
      5 C6         -0.7390  -34.9052  -42.3156 C.ar    1  MOL1       -0.0531
      6 C7         -0.5209  -36.2597  -42.5822 C.ar    1  MOL1       -0.0604
      7 C8          0.7478  -36.6999  -42.9622 C.ar    1  MOL1       -0.0441
      8 C9          1.8104  -35.7998  -43.0414 C.ar    1  MOL1        0.0554
      9 C10         3.1003  -36.2538  -43.4968 C.1     1  MOL1        0.0994
     10 N11         4.1737  -36.5451  -43.8919 N.1     1  MOL1       -0.1924
     11 C12         1.6021  -34.4496  -42.7142 C.ar    1  MOL1       -0.0245
     12 C13         2.7806  -33.5442  -42.7122 C.3     1  MOL1       -0.0380
     13 C14        -0.3191  -32.1535  -43.7870 C.3     1  MOL1        0.0675
     14 C15         0.6796  -31.1537  -44.3397 C.2     1  MOL1        0.0185
     15 N16         0.0697  -30.1490  -44.9553 N.2     1  MOL1       -0.2601
     16 C17        -1.3009  -30.3060  -44.8111 C.ar    1  MOL1        0.0666
     17 C18        -2.3346  -29.5301  -45.3254 C.ar    1  MOL1       -0.0361
     18 C19        -3.6663  -29.8047  -44.9908 C.ar    1  MOL1       -0.0601
     19 C20        -3.9538  -30.8688  -44.1337 C.ar    1  MOL1       -0.0618
     20 C21        -2.9099  -31.6673  -43.6518 C.ar    1  MOL1       -0.0560
     21 C22        -1.6011  -31.3988  -44.0195 C.ar    1  MOL1       -0.0079
     22 H22         0.5277  -30.6819  -41.5259 H       1  MOL1        0.1985
     23 H23         1.7974  -31.7185  -41.8258 H       1  MOL1        0.1985
     24 H3         -1.0531  -32.4963  -41.7742 H       1  MOL1        0.0916
     25 H6         -1.7272  -34.5673  -42.0444 H       1  MOL1        0.0628
     26 H7         -1.3340  -36.9646  -42.5073 H       1  MOL1        0.0623
     27 H8          0.9131  -37.7397  -43.2017 H       1  MOL1        0.0637
     28 H14        -0.2897  -33.0844  -44.3728 H       1  MOL1        0.0475
     29 H15         1.7516  -31.2529  -44.2461 H       1  MOL1        0.0801
     30 H18        -2.1090  -28.7080  -45.9883 H       1  MOL1        0.0646
     31 H19        -4.4632  -29.1959  -45.3936 H       1  MOL1        0.0624
     32 H20        -4.9760  -31.0755  -43.8540 H       1  MOL1        0.0623
     33 H21        -3.1297  -32.4955  -42.9939 H       1  MOL1        0.0627
     34 H11         1.4988  -31.3844  -39.4613 H       1  MOL1        0.0776
     35 H12        -0.1888  -32.0001  -39.6568 H       1  MOL1        0.0776
     36 H13         1.2125  -33.1057  -39.9539 H       1  MOL1        0.0776
     37 H131        3.7019  -34.1602  -42.7347 H       1  MOL1        0.0280
     38 H132        2.7377  -32.8969  -43.6141 H       1  MOL1        0.0280
     39 H133        2.7600  -32.9243  -41.7910 H       1  MOL1        0.0280
@<TRIPOS>BOND
     1     1     2    1
     2     2     3    1
     3     3     4    1
     4     3    13    1
     5     4    11   ar
     6     4     5   ar
     7     5     6   ar
     8     6     7   ar
     9     7     8   ar
    10     8     9    1
    11     8    11   ar
    12     9    10    3
    13    11    12    1
    14    13    21    1
    15    13    14    1
    16    14    15    2
    17    15    16    1
    18    16    21   ar
    19    16    17   ar
    20    17    18   ar
    21    18    19   ar
    22    19    20   ar
    23    20    21   ar
    24    22     2    1
    25    23     2    1
    26    24     3    1
    27    25     5    1
    28    26     6    1
    29    27     7    1
    30    28    13    1
    31    29    14    1
    32    30    17    1
    33    31    18    1
    34    32    19    1
    35    33    20    1
    36    34     1    1
    37    35     1    1
    38    36     1    1
    39    37    12    1
    40    38    12    1
    41    39    12    1

@<TRIPOS>MOLECULE
FBDD014, 0, -56.987
 39 41 0 0 0
SMALL
USER_CHARGES

@<TRIPOS>ATOM
      1 C1          1.0182  -31.8163  -39.6417 C.3     1  MOL1       -0.0468
      2 N2          0.2096  -32.7481  -40.4469 N.3     1  MOL1        0.2433
      3 C3          0.5384  -32.6093  -41.8824 C.3     1  MOL1        0.0128
      4 C5          0.9588  -33.9449  -42.4651 C.ar    1  MOL1        0.0039
      5 C6          2.3064  -33.9940  -42.8296 C.ar    1  MOL1       -0.0531
      6 C7          2.8650  -35.1492  -43.3676 C.ar    1  MOL1       -0.0604
      7 C8          2.0702  -36.2684  -43.5915 C.ar    1  MOL1       -0.0441
      8 C9          0.7232  -36.2593  -43.2299 C.ar    1  MOL1        0.0554
      9 C10        -0.0459  -37.4503  -43.5037 C.1     1  MOL1        0.0994
     10 N11        -0.6829  -38.4168  -43.7208 N.1     1  MOL1       -0.1924
     11 C12         0.1662  -35.1163  -42.6196 C.ar    1  MOL1       -0.0245
     12 C13        -1.2439  -35.2010  -42.1208 C.3     1  MOL1       -0.0380
     13 C14        -0.4872  -31.6778  -42.6068 C.3     1  MOL1        0.0675
     14 C15        -1.7556  -32.3799  -43.0571 C.2     1  MOL1        0.0185
     15 N16        -2.0235  -32.1387  -44.3309 N.2     1  MOL1       -0.2601
     16 C17        -1.0349  -31.3221  -44.8454 C.ar    1  MOL1        0.0666
     17 C18        -0.9684  -30.7084  -46.0876 C.ar    1  MOL1       -0.0361
     18 C19         0.0944  -29.8533  -46.4024 C.ar    1  MOL1       -0.0601
     19 C20         1.1416  -29.6939  -45.4921 C.ar    1  MOL1       -0.0618
     20 C21         1.0864  -30.3486  -44.2583 C.ar    1  MOL1       -0.0560
     21 C22        -0.0274  -31.1030  -43.9229 C.ar    1  MOL1       -0.0079
     22 H22         0.4689  -33.6883  -40.1606 H       1  MOL1        0.1985
     23 H23        -0.7723  -32.5154  -40.2899 H       1  MOL1        0.1985
     24 H3          1.4830  -32.0234  -41.8696 H       1  MOL1        0.0916
     25 H6          2.9260  -33.1194  -42.6899 H       1  MOL1        0.0628
     26 H7          3.9120  -35.1705  -43.6313 H       1  MOL1        0.0623
     27 H8          2.4963  -37.1498  -44.0454 H       1  MOL1        0.0637
     28 H14        -0.7401  -30.8783  -41.8991 H       1  MOL1        0.0475
     29 H15        -2.3599  -33.0008  -42.4135 H       1  MOL1        0.0801
     30 H18        -1.7538  -30.8799  -46.8099 H       1  MOL1        0.0646
     31 H19         0.1130  -29.3389  -47.3523 H       1  MOL1        0.0624
     32 H20         1.9862  -29.0699  -45.7421 H       1  MOL1        0.0623
     33 H21         1.9027  -30.2490  -43.5587 H       1  MOL1        0.0627
     34 H11         1.0319  -32.1543  -38.5821 H       1  MOL1        0.0776
     35 H12         2.0625  -31.7949  -40.0224 H       1  MOL1        0.0776
     36 H13         0.5815  -30.7964  -39.6960 H       1  MOL1        0.0776
     37 H131       -1.6584  -36.2016  -42.3631 H       1  MOL1        0.0280
     38 H132       -1.8433  -34.4024  -42.6084 H       1  MOL1        0.0280
     39 H133       -1.2369  -35.0428  -41.0202 H       1  MOL1        0.0280
@<TRIPOS>BOND
     1     1     2    1
     2     2     3    1
     3     3     4    1
     4     3    13    1
     5     4    11   ar
     6     4     5   ar
     7     5     6   ar
     8     6     7   ar
     9     7     8   ar
    10     8     9    1
    11     8    11   ar
    12     9    10    3
    13    11    12    1
    14    13    21    1
    15    13    14    1
    16    14    15    2
    17    15    16    1
    18    16    21   ar
    19    16    17   ar
    20    17    18   ar
    21    18    19   ar
    22    19    20   ar
    23    20    21   ar
    24    22     2    1
    25    23     2    1
    26    24     3    1
    27    25     5    1
    28    26     6    1
    29    27     7    1
    30    28    13    1
    31    29    14    1
    32    30    17    1
    33    31    18    1
    34    32    19    1
    35    33    20    1
    36    34     1    1
    37    35     1    1
    38    36     1    1
    39    37    12    1
    40    38    12    1
    41    39    12    1

@<TRIPOS>MOLECULE
FBDD015, 0, -74.725
 40 42 0 0 0
SMALL
USER_CHARGES

@<TRIPOS>ATOM
      1 C1          0.7169  -31.6713  -39.6374 C.3     1  MOL1       -0.0464
      2 N2          1.3166  -32.1842  -40.8767 N.3     1  MOL1        0.2468
      3 C3          0.2945  -32.7929  -41.7550 C.3     1  MOL1        0.0396
      4 C5         -0.0448  -31.9244  -42.9273 C.2     1  MOL1        0.0601
      5 N6          0.8412  -31.2248  -43.6031 N.2     1  MOL1       -0.3129
      6 C7          0.2297  -30.5283  -44.6113 C.ar    1  MOL1        0.0375
      7 C8          0.7720  -29.6589  -45.5398 C.ar    1  MOL1       -0.0402
      8 C9         -0.0534  -29.0228  -46.4727 C.ar    1  MOL1       -0.0604
      9 C10        -1.4302  -29.2787  -46.4668 C.ar    1  MOL1       -0.0615
     10 C11        -1.9673  -30.1697  -45.5302 C.ar    1  MOL1       -0.0530
     11 C12        -1.1346  -30.7840  -44.6072 C.ar    1  MOL1       -0.0025
     12 C13        -1.4478  -31.7526  -43.4868 C.3     1  MOL1       -0.0298
     13 C14         0.7394  -34.1095  -42.2945 C.ar    1  MOL1        0.0071
     14 C15         2.0930  -34.3450  -42.5679 C.ar    1  MOL1       -0.0321
     15 C16         2.5108  -35.5790  -43.0512 C.ar    1  MOL1        0.0244
     16 N17         3.8612  -35.8090  -43.2886 N.pl3   1  MOL1       -0.3583
     17 C18         1.5560  -36.5740  -43.2857 C.ar    1  MOL1       -0.0291
     18 C19         0.1956  -36.3543  -43.0193 C.ar    1  MOL1        0.0579
     19 C20        -0.8399  -37.4159  -43.2414 C.3     1  MOL1        0.4160
     20 F21        -1.7940  -37.0216  -44.0954 F       1  MOL1       -0.1661
     21 F22        -0.3488  -38.5568  -43.7465 F       1  MOL1       -0.1661
     22 F23        -1.4722  -37.7640  -42.1112 F       1  MOL1       -0.1661
     23 C24        -0.2055  -35.1125  -42.5254 C.ar    1  MOL1       -0.0407
     24 H22         1.9708  -32.9070  -40.5872 H       1  MOL1        0.1989
     25 H23         1.7563  -31.4157  -41.3877 H       1  MOL1        0.1989
     26 H3         -0.6251  -32.9815  -41.1593 H       1  MOL1        0.0974
     27 H8          1.8353  -29.4650  -45.5403 H       1  MOL1        0.0643
     28 H9          0.3702  -28.3368  -47.1912 H       1  MOL1        0.0623
     29 H10        -2.0725  -28.7878  -47.1830 H       1  MOL1        0.0623
     30 H11        -3.0285  -30.3728  -45.5233 H       1  MOL1        0.0630
     31 H13        -1.8689  -32.7094  -43.8298 H       1  MOL1        0.0649
     32 H15         2.8166  -33.5625  -42.3941 H       1  MOL1        0.0648
     33 H18         1.8735  -37.5336  -43.6661 H       1  MOL1        0.0649
     34 H24        -1.2503  -34.9278  -42.3216 H       1  MOL1        0.0634
     35 H6          1.8327  -31.1350  -43.4782 H       1  MOL1        0.1527
     36 H171        4.1056  -36.7106  -43.6456 H       1  MOL1        0.1427
     37 H172        4.4959  -35.0577  -43.0933 H       1  MOL1        0.1427
     38 H12         1.4470  -31.7562  -38.8040 H       1  MOL1        0.0776
     39 H14         0.4422  -30.6082  -39.7686 H       1  MOL1        0.0776
     40 H16        -0.1968  -32.2578  -39.3914 H       1  MOL1        0.0776
@<TRIPOS>BOND
     1     1     2    1
     2     2     3    1
     3     3     4    1
     4     3    13    1
     5     4    12    1
     6     4     5    2
     7     5     6    1
     8     6    11   ar
     9     6     7   ar
    10     7     8   ar
    11     8     9   ar
    12     9    10   ar
    13    10    11   ar
    14    11    12    1
    15    13    23   ar
    16    13    14   ar
    17    14    15   ar
    18    15    16    1
    19    15    17   ar
    20    17    18   ar
    21    18    19    1
    22    18    23   ar
    23    19    20    1
    24    19    21    1
    25    19    22    1
    26    24     2    1
    27    25     2    1
    28    26     3    1
    29    27     7    1
    30    28     8    1
    31    29     9    1
    32    30    10    1
    33    31    12    1
    34    32    14    1
    35    33    17    1
    36    34    23    1
    37    35     5    1
    38    36    16    1
    39    37    16    1
    40    38     1    1
    41    39     1    1
    42    40     1    1

@<TRIPOS>MOLECULE
FBDD016, 0, -72.703
 40 42 0 0 0
SMALL
USER_CHARGES

@<TRIPOS>ATOM
      1 C1          0.8299  -31.7547  -39.6204 C.3     1  MOL1       -0.0464
      2 N2         -0.0215  -32.5537  -40.5128 N.3     1  MOL1        0.2468
      3 C3          0.6259  -32.6180  -41.8415 C.3     1  MOL1        0.0396
      4 C5         -0.0579  -31.8670  -42.9472 C.2     1  MOL1        0.0601
      5 N6          0.6051  -31.0225  -43.7024 N.2     1  MOL1       -0.3129
      6 C7         -0.2313  -30.4453  -44.6267 C.ar    1  MOL1        0.0375
      7 C8          0.0442  -29.5074  -45.6057 C.ar    1  MOL1       -0.0402
      8 C9         -0.9807  -29.0157  -46.4203 C.ar    1  MOL1       -0.0604
      9 C10        -2.2915  -29.4724  -46.2379 C.ar    1  MOL1       -0.0615
     10 C11        -2.5624  -30.4293  -45.2512 C.ar    1  MOL1       -0.0530
     11 C12        -1.5279  -30.9155  -44.4604 C.ar    1  MOL1       -0.0025
     12 C13        -1.5300  -31.9464  -43.3471 C.3     1  MOL1       -0.0298
     13 C14         0.9541  -33.9997  -42.2908 C.ar    1  MOL1        0.0071
     14 C15         2.2904  -34.3095  -42.5505 C.ar    1  MOL1       -0.0321
     15 C16         2.6426  -35.5773  -43.0104 C.ar    1  MOL1        0.0244
     16 N17         3.9744  -35.8691  -43.2854 N.pl3   1  MOL1       -0.3583
     17 C18         1.6412  -36.5407  -43.1865 C.ar    1  MOL1       -0.0291
     18 C19         0.2995  -36.2518  -42.8932 C.ar    1  MOL1        0.0579
     19 C20        -0.7843  -37.2814  -43.0232 C.3     1  MOL1        0.4160
     20 F21        -1.4282  -37.4904  -41.8627 F       1  MOL1       -0.1661
     21 F22        -1.7230  -36.9337  -43.9142 F       1  MOL1       -0.1661
     22 F23        -0.3443  -38.4867  -43.4103 F       1  MOL1       -0.1661
     23 C24        -0.0380  -34.9700  -42.4610 C.ar    1  MOL1       -0.0407
     24 H22        -0.9446  -32.1180  -40.5732 H       1  MOL1        0.1989
     25 H23        -0.0463  -33.4948  -40.1306 H       1  MOL1        0.1989
     26 H3          1.6132  -32.1299  -41.7017 H       1  MOL1        0.0974
     27 H8          1.0553  -29.1484  -45.7345 H       1  MOL1        0.0643
     28 H9         -0.7589  -28.2865  -47.1853 H       1  MOL1        0.0623
     29 H10        -3.0854  -29.0827  -46.8594 H       1  MOL1        0.0623
     30 H11        -3.5754  -30.7749  -45.1084 H       1  MOL1        0.0630
     31 H13        -1.8031  -32.9552  -43.6958 H       1  MOL1        0.0649
     32 H15         3.0570  -33.5636  -42.4072 H       1  MOL1        0.0648
     33 H18         1.9049  -37.5269  -43.5359 H       1  MOL1        0.0649
     34 H24        -1.0683  -34.7249  -42.2520 H       1  MOL1        0.0634
     35 H6          1.5782  -30.7641  -43.6817 H       1  MOL1        0.1527
     36 H171        4.1634  -36.7521  -43.7170 H       1  MOL1        0.1427
     37 H172        4.6500  -35.1759  -43.0318 H       1  MOL1        0.1427
     38 H12         0.6766  -32.0612  -38.5642 H       1  MOL1        0.0776
     39 H14         1.9009  -31.8829  -39.8880 H       1  MOL1        0.0776
     40 H16         0.5658  -30.6768  -39.7223 H       1  MOL1        0.0776
@<TRIPOS>BOND
     1     1     2    1
     2     2     3    1
     3     3     4    1
     4     3    13    1
     5     4    12    1
     6     4     5    2
     7     5     6    1
     8     6    11   ar
     9     6     7   ar
    10     7     8   ar
    11     8     9   ar
    12     9    10   ar
    13    10    11   ar
    14    11    12    1
    15    13    23   ar
    16    13    14   ar
    17    14    15   ar
    18    15    16    1
    19    15    17   ar
    20    17    18   ar
    21    18    19    1
    22    18    23   ar
    23    19    20    1
    24    19    21    1
    25    19    22    1
    26    24     2    1
    27    25     2    1
    28    26     3    1
    29    27     7    1
    30    28     8    1
    31    29     9    1
    32    30    10    1
    33    31    12    1
    34    32    14    1
    35    33    17    1
    36    34    23    1
    37    35     5    1
    38    36    16    1
    39    37    16    1
    40    38     1    1
    41    39     1    1
    42    40     1    1

